
#======================================================================
# CRYSTAL DATA
#----------------------------------------------------------------------
data_VESTA_phase_1

_chemical_name_common                  ''
_cell_length_a                         5.854679
_cell_length_b                         5.854679
_cell_length_c                         5.854679
_cell_angle_alpha                      90.000000
_cell_angle_beta                       90.000000
_cell_angle_gamma                      90.000000
_cell_volume                           200.682353
_space_group_name_H-M_alt              'P 1'
_space_group_IT_number                 1

loop_
_space_group_symop_operation_xyz
   'x, y, z'

loop_
   _atom_site_label
   _atom_site_occupancy
   _atom_site_fract_x
   _atom_site_fract_y
   _atom_site_fract_z
   _atom_site_adp_type
   _atom_site_B_iso_or_equiv
   _atom_site_type_symbol
   S1          1.0     0.500000     0.500000     0.500000    Biso  1.000000 S
   F8          1.0     0.500000     0.233370     0.500000    Biso  1.000000 F
   F9          1.0     0.500000     0.766630     0.500000    Biso  1.000000 F
   F10         1.0     0.766630     0.500000     0.500000    Biso  1.000000 F
   F11         1.0     0.233370     0.500000     0.500000    Biso  1.000000 F
   F12         1.0     0.500000     0.500000     0.766630    Biso  1.000000 F
   F13         1.0     0.500000     0.500000     0.233370    Biso  1.000000 F
